dss/import/capas-pablo/Formato-interfaz/13n-switch-modificado-niveles-stwcontrol-normamps-pvsy-apdemaniobra/Line.dss
New Line.lc684_652a bus1=684.1 bus2=652.1 length=103.47 Geometry=lineconfig605 units=m phases=1
New Line.lc692_675 bus1=692.1.2.3 bus2=675.1.2.3 length=125.34 Geometry=lineconfig602 units=m phases=3
New Line.lohl632_633 bus1=632.1.2.3.4 bus2=633.1.2.3.4 length=147.26 Geometry=lineconfig602 units=m phases=3
New Line.lohl632_645 bus1=632.3.2.4 bus2=645.3.2.4 length=82.28 Geometry=lineconfig603_604 units=m phases=2
New Line.lohl632_671 bus1=632.1.2.3.4 bus2=671.1.2.3.4 length=166.4 Geometry=lineconfig601 units=m phases=3
New Line.lohl645_646 bus1=645.3.2.4 bus2=646.3.2.4 length=114.75 Geometry=lineconfig603_604 units=m phases=2
New Line.lohl650_632 bus1=rg60.1.2.3.4 bus2=632.1.2.3.4 length=49.3 Geometry=lineconfig601 units=m phases=3
New Line.lohl671_680 bus1=671.1.2.3.4 bus2=680.1.2.3.4 length=71.29 Geometry=lineconfig601 units=m phases=3
New Line.lohl671_684 bus1=671.1.3.4 bus2=684.1.3.4 length=154.16 Geometry=lineconfig603_604 units=m phases=2
New Line.lohl684_611 bus1=684.3.4 bus2=611.3.4 length=126.96 Geometry=lineconfig605 units=m phases=1
New Line.switch bus1=671.1.2.3.4 bus2=692.1.2.3.4 length=130.84 Geometry=lineconfig602 units=m phases=3
New Line.ed7159c1-6d4a-4520-94f7-7d678ca068dd bus1=634.1.2.3.4 bus2=e9c7fddc-0298-4bb0-af01-af4459e9b4a8.1.2.3.4 length=20.6 Geometry=lineconfig602 units=m phases=3
New Line.122a33b3-cdd8-4be2-804a-9de234c3f412 bus1=e9c7fddc-0298-4bb0-af01-af4459e9b4a8.1.2.3.4 bus2=5460969c-0946-4b19-9677-60858fe5ec59.1.2.3.4 length=21.44 Geometry=lineconfig602 units=m phases=3
New Line.770f48ff-df32-4cb5-a9a5-c735e49976a0 bus1=5460969c-0946-4b19-9677-60858fe5ec59.1.2.3.4 bus2=d7ce7c56-b13f-48c1-a514-05157f789108.1.2.3.4 length=18.54 Geometry=lineconfig602 units=m phases=3
New Line.5c2e0b93-ec27-4cec-a069-311a95d0e2ac bus1=e9c7fddc-0298-4bb0-af01-af4459e9b4a8.1.2.3.4 bus2=f63d9695-b85e-42ff-a486-b097509f9524.1.2.3.4 length=18.28 Geometry=lineconfig602 units=m phases=3
New Line.f1dda4b1-128e-4d67-8c75-48ecaeb1cc1f bus1=f63d9695-b85e-42ff-a486-b097509f9524.1.2.3.4 bus2=3c7a10ce-e759-4b1f-8d96-8124e6028b80.1.2.3.4 length=23.34 Geometry=lineconfig602 units=m phases=3
New Line.33900851-b396-4081-acf8-4da3efb2f8ae bus1=substation115kv.1.2.3 bus2=f5d369c9-9d9f-4b35-9ca3-5d6ab0da6dcd.1.2.3 length=49.08 Geometry=lineconfig601 units=m phases=3
New Line.879a22ee-82c6-4480-85e9-f844c133c7ea bus1=344c8433-5eba-4c95-87d4-d3a5299da001.1.2.3 bus2=rg60.1.2.3 length=61.46 Geometry=lineconfig601 units=m phases=3
New Line.800e2922-688f-47d6-bb4f-bf2fb5e35751 bus1=671.1.2.3.4 bus2=0842a6ca-f8e1-4a58-817c-a32f460c0bd4.1.2.3.4 length=55.17 Geometry=lineconfig601 units=m phases=3
